<?xml version="1.0" encoding="UTF-8"?>
<routes xmlns:xsi="http://www.w3.org/2001/XMLSchema-instance" xsi:noNamespaceSchemaLocation="http://sumo.dlr.de/xsd/routes_file.xsd">
    <flow id="flow_0" begin="0.00" from="w_t" to="t_n" end="4000.00" number="1800"/>
    <flow id="flow_1" begin="0.00" from="w_t" to="t_e" end="4100.00" number="1800"/>
    <flow id="flow_2" begin="0.00" from="n_t" to="t_e" end="4000.00" number="1800"/>
    <flow id="flow_3" begin="0.00" from="n_t" to="t_s" end="4100.00" number="1800"/>
    <flow id="flow_4" begin="0.00" from="e_t" to="t_w" end="4000.00" number="1800"/>
    <flow id="flow_5" begin="0.00" from="e_t" to="t_s" end="4100.00" number="1800"/>
    <flow id="flow_6" begin="0.00" from="s_t" to="t_w" end="4000.00" number="1800"/>
    <flow id="flow_7" begin="0.00" from="s_t" to="t_n" end="4100.00" number="1800"/>
</routes>
