<?xml version="1.0" encoding="UTF-8"?>
<!DOCTYPE routes [
        <!ENTITY work "1000">
        <!ENTITY noon "800">
        <!ENTITY night "500">
        ]>
<!-- generated on 2021-07-13 09:56:58 by Eclipse SUMO netedit Version 1.9.2
<configuration xmlns:xsi="http://www.w3.org/2001/XMLSchema-instance" xsi:noNamespaceSchemaLocation="http://sumo.dlr.de/xsd/netconvertConfiguration.xsd">

    <input>
        <sumo-net-file value="/home/martin/PycharmProjects/Genetic-SUMO/single.net.xml"/>
    </input>

    <output>
        <output-file value="/home/martin/PycharmProjects/Genetic-SUMO/single.net.xml"/>
    </output>

    <processing>
        <geometry.min-radius.fix.railways value="false"/>
        <geometry.max-grade.fix value="false"/>
        <offset.disable-normalization value="true"/>
        <lefthand value="false"/>
    </processing>

    <junctions>
        <no-turnarounds value="true"/>
        <junctions.corner-detail value="0"/>
        <junctions.limit-turn-speed value="-1"/>
        <rectangular-lane-cut value="false"/>
    </junctions>

    <pedestrian>
        <walkingareas value="false"/>
    </pedestrian>

    <netedit>
        <additional-files value="/home/martin/PycharmProjects/Genetic-SUMO/single.det.xml"/>
        <route-files value="/home/martin/PycharmProjects/Genetic-SUMO/single.rou.xml"/>
    </netedit>

    <report>
        <aggregate-warnings value="5"/>
    </report>

</configuration>
-->


<routes xmlns:xsi="http://www.w3.org/2001/XMLSchema-instance" xsi:noNamespaceSchemaLocation="http://sumo.dlr.de/xsd/routes_file.xsd">

    <flow id="morning_0" begin="0.00" end="1200.00" vehsPerHour="500" from="n_t" to="t_s"/>
    <flow id="morning_1" begin="0.00" end="1200.00" vehsPerHour="500" from="n_t" to="t_e"/>
    <flow id="morning_2" begin="0.00" end="1200.00" vehsPerHour="500" from="n_t" to="t_w"/>
    <flow id="morning_3" begin="0.00" end="1200.00" vehsPerHour="500" from="s_t" to="t_n"/>
    <flow id="morning_4" begin="0.00" end="1200.00" vehsPerHour="500" from="s_t" to="t_e"/>
    <flow id="morning_5" begin="0.00" end="1200.00" vehsPerHour="500" from="s_t" to="t_w"/>
    <flow id="morning_6" begin="0.00" end="1200.00" vehsPerHour="500" from="e_t" to="t_w"/>
    <flow id="morning_7" begin="0.00" end="1200.00" vehsPerHour="500" from="e_t" to="t_s"/>
    <flow id="morning_8" begin="0.00" end="1200.00" vehsPerHour="500" from="e_t" to="t_n"/>
    <flow id="morning_9" begin="0.00" end="1200.00" vehsPerHour="500" from="w_t" to="t_e"/>
    <flow id="morning_10" begin="0.00" end="1200.00" vehsPerHour="500" from="w_t" to="t_s"/>
    <flow id="morning_11" begin="0.00" end="1200.00" vehsPerHour="500" from="w_t" to="t_n"/>

    <flow id="work_10" begin="1200.00" end="1800.00" vehsPerHour="1000" from="w_t" to="t_e"/>
    <flow id="work_11" begin="1200.00" end="1800.00" vehsPerHour="1000" from="n_t" to="t_w"/>
    <flow id="work_12" begin="1200.00" end="1800.00" vehsPerHour="1000" from="s_t" to="t_e"/>
    <flow id="work_13" begin="1200.00" end="1800.00" vehsPerHour="1000" from="e_t" to="t_w"/>

    <flow id="noon_1" begin="1800.00" end="3000.00" vehsPerHour="800" from="n_t" to="t_s"/>
    <flow id="noon_2" begin="1800.00" end="3000.00" vehsPerHour="800" from="n_t" to="t_e"/>
    <flow id="noon_3" begin="1800.00" end="3000.00" vehsPerHour="800" from="n_t" to="t_w"/>
    <flow id="noon_4" begin="1800.00" end="3000.00" vehsPerHour="800" from="s_t" to="t_n"/>
    <flow id="noon_5" begin="1800.00" end="3000.00" vehsPerHour="800" from="s_t" to="t_e"/>
    <flow id="noon_6" begin="1800.00" end="3000.00" vehsPerHour="800" from="s_t" to="t_w"/>
    <flow id="noon_7" begin="1800.00" end="3000.00" vehsPerHour="800" from="e_t" to="t_w"/>
    <flow id="noon_8" begin="1800.00" end="3000.00" vehsPerHour="800" from="e_t" to="t_s"/>
    <flow id="noon_9" begin="1800.00" end="3000.00" vehsPerHour="800" from="e_t" to="t_n"/>
    <flow id="noon_10" begin="1800.00" end="3000.00" vehsPerHour="800" from="w_t" to="t_e"/>
    <flow id="noon_11" begin="1800.00" end="3000.00" vehsPerHour="800" from="w_t" to="t_s"/>
    <flow id="noon_12" begin="1800.00" end="3000.00" vehsPerHour="800" from="w_t" to="t_n"/>

    <flow id="work_20" begin="3000.00" end="3600.00" vehsPerHour="1000" from="e_t" to="t_w"/>
    <flow id="work_21" begin="3000.00" end="3600.00" vehsPerHour="1000" from="e_t" to="t_n"/>
    <flow id="work_22" begin="3000.00" end="3600.00" vehsPerHour="1000" from="e_t" to="t_s"/>
    <flow id="work_23" begin="3000.00" end="3600.00" vehsPerHour="1000" from="w_t" to="t_e"/>

    <flow id="night_1" begin="3600.00" end="4800.00" vehsPerHour="500" from="n_t" to="t_s"/>
    <flow id="night_2" begin="3600.00" end="4800.00" vehsPerHour="500" from="n_t" to="t_e"/>
    <flow id="night_3" begin="3600.00" end="4800.00" vehsPerHour="500" from="n_t" to="t_w"/>
    <flow id="night_4" begin="3600.00" end="4800.00" vehsPerHour="500" from="s_t" to="t_n"/>
    <flow id="night_5" begin="3600.00" end="4800.00" vehsPerHour="500" from="s_t" to="t_e"/>
    <flow id="night_6" begin="3600.00" end="4800.00" vehsPerHour="500" from="s_t" to="t_w"/>
    <flow id="night_7" begin="3600.00" end="4800.00" vehsPerHour="500" from="e_t" to="t_w"/>
    <flow id="night_8" begin="3600.00" end="4800.00" vehsPerHour="500" from="e_t" to="t_s"/>
    <flow id="night_9" begin="3600.00" end="4800.00" vehsPerHour="500" from="e_t" to="t_n"/>
    <flow id="night_10" begin="3600.00" end="4800.00" vehsPerHour="500" from="w_t" to="t_e"/>
    <flow id="night_11" begin="3600.00" end="4800.00" vehsPerHour="500" from="w_t" to="t_s"/>
    <flow id="night_12" begin="3600.00" end="4800.00" vehsPerHour="500" from="w_t" to="t_n"/>



    <!---
    <flow id="flow_0" begin="0.00" from="w_t" to="t_s" end="4000.00" number="1800"/>
    <flow id="flow_1" begin="0.00" from="w_t" to="t_e" end="4000.00" number="1800"/>
    <flow id="flow_2" begin="0.00" from="n_t" to="t_w" end="4000.00" number="1800"/>
    <flow id="flow_3" begin="0.00" from="n_t" to="t_s" end="4000.00" number="1800"/>
    <flow id="flow_4" begin="0.00" from="e_t" to="t_w" end="4000.00" number="1800"/>
    <flow id="flow_5" begin="0.00" from="e_t" to="t_n" end="4000.00" number="1800"/>
    <flow id="flow_6" begin="0.00" from="s_t" to="t_e" end="4000.00" number="1800"/>
    <flow id="flow_7" begin="0.00" from="s_t" to="t_n" end="4000.00" number="1800"/>
    -->
</routes>
