<?xml version="1.0" encoding="UTF-8"?>

<!-- generated on 2021-07-13 09:53:47 by Eclipse SUMO netedit Version 1.9.2
<configuration xmlns:xsi="http://www.w3.org/2001/XMLSchema-instance" xsi:noNamespaceSchemaLocation="http://sumo.dlr.de/xsd/netconvertConfiguration.xsd">

    <input>
        <sumo-net-file value="/home/martin/PycharmProjects/Genetic-SUMO/single.net.xml"/>
    </input>

    <output>
        <output-file value="/home/martin/PycharmProjects/Genetic-SUMO/single.net.xml"/>
    </output>

    <processing>
        <geometry.min-radius.fix.railways value="false"/>
        <geometry.max-grade.fix value="false"/>
        <offset.disable-normalization value="true"/>
        <lefthand value="false"/>
    </processing>

    <junctions>
        <no-turnarounds value="true"/>
        <junctions.corner-detail value="0"/>
        <junctions.limit-turn-speed value="-1"/>
        <rectangular-lane-cut value="false"/>
    </junctions>

    <pedestrian>
        <walkingareas value="false"/>
    </pedestrian>

    <netedit>
        <additional-files value="/home/martin/PycharmProjects/Genetic-SUMO/single.det.xml"/>
    </netedit>

    <report>
        <aggregate-warnings value="5"/>
    </report>

</configuration>
-->

<additional xmlns:xsi="http://www.w3.org/2001/XMLSchema-instance" xsi:noNamespaceSchemaLocation="http://sumo.dlr.de/xsd/additional_file.xsd">
    <e1Detector id="e1Detector_e_t_0_6" lane="e_t_0" pos="137.15" freq="900.00" file="out.xml"/>
    <e1Detector id="e1Detector_e_t_1_7" lane="e_t_1" pos="137.08" freq="900.00" file="out.xml"/>
    <e1Detector id="e1Detector_n_t_0_9" lane="n_t_0" pos="136.99" freq="900.00" file="out.xml"/>
    <e1Detector id="e1Detector_n_t_1_8" lane="n_t_1" pos="136.98" freq="900.00" file="out.xml"/>
    <e1Detector id="e1Detector_s_t_0_5" lane="s_t_0" pos="137.06" freq="900.00" file="out.xml"/>
    <e1Detector id="e1Detector_s_t_1_4" lane="s_t_1" pos="137.06" freq="900.00" file="out.xml"/>
    <e1Detector id="e1Detector_w_t_0_0" lane="w_t_0" pos="137.02" freq="900.00" file="out.xml"/>
    <e1Detector id="e1Detector_w_t_1_1" lane="w_t_1" pos="137.02" freq="900.00" file="out.xml"/>
</additional>
