<routes>
    <!-- Horizontal: top left to top right -->
    <flow id="flow_1" from="-h11" to="-h13" begin="0" end="100000" probability="0.1" departSpeed="max" departPos="base" departLane="best"/>
    <!-- Horizontal: bottom left to bottom right -->
    <flow id="flow_2" from="-h21" to="-h23" begin="0" end="100000" probability="0.1" departSpeed="max" departPos="base" departLane="best"/>
    <!-- Vertical: top left to bottom left -->
    <flow id="flow_3" from="-v11" to="-v13" begin="0" end="100000" probability="0.1" departSpeed="max" departPos="base" departLane="best"/>
    <!-- Vertical: top right to bottom right -->
    <flow id="flow_4" from="-v21" to="-v23" begin="0" end="100000" probability="0.1" departSpeed="max" departPos="base" departLane="best"/>
    <!-- Vertical top right to horizontal bottom right -->
    <flow id="flow_5" from="-v21" to="-h23" begin="0" end="100000" probability="0.1" departSpeed="max" departPos="base" departLane="best"/>
    <!-- Horizontal top left to vertical top right -->
    <flow id="flow_6" from="-h11" to="-v13" begin="0" end="100000" probability="0.1" departSpeed="max" departPos="base" departLane="best"/>
    <!-- Vertical bottom right to vertical top left -->
    <flow id="flow_7" from="v23" to="-v13" begin="0" end="100000" probability="0.1" departSpeed="max" departPos="base" departLane="best"/>
    <!-- Horizontal top right to horizontal bottom left -->
    <flow id="flow_8" from="h13" to="-h23" begin="0" end="100000" probability="0.1" departSpeed="max" departPos="base" departLane="best"/>
    <!-- Horizontal bottom right to vertical top left -->
    <flow id="flow_9" from="h23" to="v11" begin="0" end="100000" probability="0.1" departSpeed="max" departPos="base" departLane="best"/>
    <!-- Horizontal bottom right to vertical top left -->
    <flow id="flow_10" from="v13" to="v21" begin="0" end="100000" probability="0.1" departSpeed="max" departPos="base" departLane="best"/>
</routes>

