<?xml version="1.0" encoding="UTF-8"?>

<configuration>
    <input>
       <net-file value="2x2.net.xml"/>
        <route-files value="2x2.rou.xml"/>
    </input>
	<time>
        <begin value="0"/>
        <end value="260000"/>
    </time>
</configuration>
